10
	Energy:       9.3320924
C         -7.71880        1.33783        0.53296
C         -6.21931        1.20048        0.86493
C         -6.48055       -0.28535        0.96964
C         -7.80007       -0.15771        0.74190
H         -8.28440        1.95619        1.23817
H         -7.92725        1.69081       -0.48316
H         -5.91306        1.69872        1.79150
H         -5.54622        1.51780        0.06128
H         -5.83180       -1.13005        1.18293
H         -8.62663       -0.86067        0.69143
